$DATA1 SOURCE='HSPICE' VERSION='P-2019.06-SP1-1 win64' PARAM_COUNT=0
.TITLE '****array multiplier design****'
 average_power    t_delay          t_rise           temper          
 alter#          
  8.669e-03          failed        -4.914e-10        2.500e+01      
1               
