 ****** HSPICE -- P-2019.06-SP1-1 win64 (Sep 27 2019) ******                    
  Copyright (c) 1986 - 2022 by Synopsys, Inc. All Rights Reserved.              
  This software and the associated documentation are proprietary
  to Synopsys, Inc. This software may only be used in accordance
  with the terms and conditions of a written license agreement with
  Synopsys, Inc. All other use, reproduction, or distribution of
  this software is strictly prohibited.
  Input File: half_adder.sp                                                     
  Command line options: C:\synopsys\Hspice_P-2019.06-SP1-1\WIN64\hspice.com -i half_adder.sp -o C:\Users\Ali_Negary\Desktop\IUST\Semester 3\Low-Power System Design\Final Exam\Question2\Array_Multiplier\8th_try - HalfAdder\half_adder.lis
  Start time: Tue Jan 25 09:12:45 2022
  lic:  
  lic: FLEXlm: SDK_12.3 
  lic: USER:   Ali_Negary           HOSTNAME: AliNegary-Desktop 
  lic: HOSTID: "d0534943d96d"       PID:      16616 
  lic: Using FLEXlm license file: 
  lic: 27000@AliNegary-Desktop 
  lic: Checkout 1 hspice 
  lic: License/Maintenance for hspice will expire on 30-dec-2030/2030.12 
  lic: 1(in_use)/99(total) FLOATING license(s) on SERVER 27000@AliNegary-Desktop
  
  lic:   
1****** HSPICE -- P-2019.06-SP1-1 win64 (Sep 27 2019) ******                    
 ******  
 ****half adder design****

 ****** circuit name directory
 circuit number to circuit name directory
   number circuitname                     definition         multiplier
        0 main circuit
        1 xha.                            halfadder          1.00 
        2 xha.xorx1.                      orx                1.00 
        3 xha.xand1.                      and                1.00 

 **warning** It is recommended that you set start explicitly:
             .TRAN tstep tstop START=val


 ******  
 ****half adder design****

 ****** mos   model parameters tnom=  25.000 temp=  25.000 ******
 Model file: cmos_45nm.lib
 Model line:            5
 Model Name: nmos  
 BSIM4 Model (Level 54)
    MOBMOD = 0
    BINUNIT = 1
    PARAMCHK = 1
    CAPMOD = 2
    DIOMOD = 1
    RDSMOD = 0
    TRNQSMOD = 0
    ACNQSMOD = 0
    RBODYMOD = 1
    RGATEMOD = 1
    PERMOD = 1
    GEOMOD = 1
    RGEOMOD = 0
    FNOIMOD = 1
    TNOIMOD = 0
    IGCMOD = 1
    IGBMOD = 1
    STIMOD = 0
    VERSION =      4 
    TOXREF = 1.8e-09 
    TOXE = 1.8e-09 
    TOXP = 1.5e-09 
    TOXM = 1.8e-09 
    DTOX =  3e-10 
    EPSROX =    3.9 
    CDSC =      0 
    CDSCB =      0 
    CDSCD =      0 
    CIT =      0 
    NFACTOR =    1.6 
    XJ = 1.4e-08 
    VSAT = 1.3e+05 
    A0 =      1 
    AGS =      0 
    A1 =      0 
    A2 =      1 
    AT = 3.3e+04 
    KETA =   0.04 
    NSUB =  6e+16 
    NDEP = 3.24e+18 
    NSD =  2e+20 
    NGATE =  1e+23 
    GAMMA1 =      0 
    GAMMA2 =      0 
    VBX =      0 
    VBM =     -3 
    XT = 1.55e-07 
    K1 =    0.4 
    KT1 =  -0.11 
    KT1L =      0 
    KT2 =  0.022 
    K2 =      0 
    K3 =      0 
    K3B =      0 
    LPE0 =      0 
    LPEB =      0 
    DVTP0 =  1e-10 
    DVTP1 =    0.1 
    W0 = 2.5e-06 
    DVT0 =      1 
    DVT1 =      2 
    DVT2 =      0 
    DVT0W =      0 
    DVT1W =      0 
    DVT2W =      0 
    DROUT =    0.5 
    DSUB =    0.1 
    VTH0 = 0.6226 
    EU =   1.67 
    UA =  6e-10 
    UA1 = 4.31e-09 
    UB = 1.2e-18 
    UB1 = 7.61e-18 
    UC =      0 
    UC1 = -5.6e-11 
    U0 =  0.049 
    UTE =   -1.5 
    VOFF =  -0.13 
    VOFFL =      0 
    MINV =   0.05 
    FPROUT =    0.2 
    PDITS =   0.08 
    PDITSD =   0.23 
    PDITSL = 2.3e+06 
    DELTA =   0.01 
    RDSW =    210 
    RDSWMIN =      0 
    RDWMIN =      0 
    RSWMIN =      0 
    RDW =     80 
    RSW =     80 
    PRWG =      0 
    PRWB =      0 
    PRT =      0 
    ETA0 = 0.0125 
    ETAB =      0 
    PCLM =   0.02 
    PDIBLC1 =  0.001 
    PDIBLC2 =  0.001 
    PDIBLCB = -0.005 
    PSCBE1 = 8.14e+08 
    PSCBE2 =  1e-07 
    PVAG =  1e-20 
    WR =      1 
    DWG =      0 
    DWB =      0 
    XW =      0 
    XWREF =      0 
    XL =      0 
    XLREF =      0 
    B0 =      0 
    B1 =      0 
    ALPHA0 =  0.074 
    ALPHA1 =  0.005 
    AGIDL = 0.0002 
    BGIDL = 2.1e+09 
    CGIDL = 0.0002 
    PHIN =      0 
    EGIDL =    0.8 
    AIGC = 0.01521 
    BIGC = 0.002743 
    CIGC =  0.002 
    AIGSD = 0.01521 
    BIGSD = 0.002743 
    CIGSD =  0.002 
    AIGBACC =  0.012 
    BIGBACC = 0.0028 
    CIGBACC =  0.002 
    AIGBINV =  0.014 
    BIGBINV =  0.004 
    CIGBINV =  0.004 
    NIGC =      1 
    NIGBINV =      3 
    NIGBACC =      1 
    NTOX =      1 
    EIGBINV =    1.1 
    PIGCD =      1 
    POXEDGE =      1 
    XRCRG1 =     12 
    TNOIA =    1.5 
    TNOIB =    3.5 
    NTNOI =      1 
    XRCRG2 =      5 
    BETA0 =     30 
    IJTHDFWD =   0.01 
    IJTHSFWD =   0.01 
    IJTHDREV =  0.001 
    IJTHSREV =  0.001 
    XJBVD =      1 
    XJBVS =      1 
    BVD =     10 
    BVS =     10 
    VFB =  -0.55 
    GBMIN =  1e-10 
    RBDB =     15 
    RBPB =      5 
    RBSB =     15 
    RBPS =     15 
    RBPD =     15 
    CGSL = 2.653e-10 
    CGDL = 2.653e-10 
    CKAPPAS =   0.03 
    CKAPPAD =   0.03 
    CF = 1.189e-10 
    CLC =  1e-07 
    CLE =    0.6 
    DWC =  5e-09 
    DLC =      0 
    DLCIG =      0 
    DWJ =      0 
    VFBCV =     -1 
    ACDE =      1 
    MOIN =     15 
    NOFF =    0.9 
    VOFFCV =   0.02 
    DMCG =      0 
    DMCI =      0 
    DMDG =      0 
    DMCGT =      0 
    XGW =      0 
    XGL =      0 
    RSHG =    0.4 
    NGCON =      1 
    TCJ =  0.001 
    TPB =  0.005 
    TCJSW =  0.001 
    TPBSW =  0.005 
    TCJSWG =  0.001 
    TPBSWG =  0.005 
    SK0 =      0 
    SK1 =      0 
    SK2 =      0 
    SL =  2e-06 
    SW =  2e-06 
    K =      0 
    TNOM =  300.1 
    CGSO = 1.1e-10 
    CGDO = 1.1e-10 
    CGBO = 2.56e-11 
    XPART =      0 
    RSH =      5 
    JSS = 0.0001 
    JSWS =  1e-11 
    JSWGS =  1e-10 
    PBS =      1 
    MJS =    0.5 
    PBSWS =      1 
    MJSWS =   0.33 
    CJS = 0.0005 
    CJSWS =  5e-10 
    NJS =      1 
    PBSWGS =      1 
    MJSWGS =   0.33 
    CJSWGS =  3e-10 
    XTIS =      3 
    JSD = 0.0001 
    JSWD =  1e-11 
    JSWGD =  1e-10 
    PBD =      1 
    MJD =    0.5 
    PBSWD =      1 
    MJSWD =   0.33 
    CJD = 0.0005 
    CJSWD =  5e-10 
    NJD =      1 
    PBSWGD =      1 
    MJSWGD =   0.33 
    CJSWGD =  5e-10 
    XTID =      3 
    LMLT =      1 
    WMLT =      1 
    LINT =      0 
    LL =      0 
    LLC =      0 
    LLN =      1 
    LW =      0 
    LWC =      0 
    LWN =      1 
    LWL =      0 
    LWLC =      0 
    LMIN =      0 
    LMAX =      1 
    WINT =  5e-09 
    WL =      0 
    WLC =      0 
    WLN =      1 
    WW =      0 
    WWC =      0 
    WWN =      1 
    WWL =      0 
    WWLC =      0 
    WMIN =      0 
    WMAX =      1 
    NOIA = 6.25e+41 
    NOIB = 3.125e+26 
    NOIC = 8.75e+09 
    EM = 4.1e+07 
    EF =      1 
    AF =      1 
    KF =      0 
    TRS =      0 
    TRD =      0 
 Model file: cmos_45nm.lib
 Model line:           74
 Model Name: pmos  
 BSIM4 Model (Level 54)
    MOBMOD = 0
    BINUNIT = 1
    PARAMCHK = 1
    CAPMOD = 2
    DIOMOD = 1
    RDSMOD = 0
    TRNQSMOD = 0
    ACNQSMOD = 0
    RBODYMOD = 1
    RGATEMOD = 1
    PERMOD = 1
    GEOMOD = 1
    RGEOMOD = 0
    FNOIMOD = 1
    TNOIMOD = 0
    IGCMOD = 1
    IGBMOD = 1
    STIMOD = 0
    VERSION =      4 
    TOXREF = 1.82e-09 
    TOXE = 1.82e-09 
    TOXP = 1.5e-09 
    TOXM = 1.82e-09 
    DTOX = 3.2e-10 
    EPSROX =    3.9 
    CDSC =      0 
    CDSCB =      0 
    CDSCD =      0 
    CIT =      0 
    NFACTOR =    1.8 
    XJ = 1.4e-08 
    VSAT =  9e+04 
    A0 =      1 
    AGS =  1e-20 
    A1 =      0 
    A2 =      1 
    AT = 3.3e+04 
    KETA = -0.047 
    NSUB =  6e+16 
    NDEP = 2.44e+18 
    NSD =  2e+20 
    NGATE =  1e+23 
    GAMMA1 =      0 
    GAMMA2 =      0 
    VBX =      0 
    VBM =     -3 
    XT = 1.55e-07 
    K1 =    0.4 
    KT1 =  -0.11 
    KT1L =      0 
    KT2 =  0.022 
    K2 =  -0.01 
    K3 =      0 
    K3B =      0 
    LPE0 =      0 
    LPEB =      0 
    DVTP0 =  1e-11 
    DVTP1 =   0.05 
    W0 = 2.5e-06 
    DVT0 =      1 
    DVT1 =      2 
    DVT2 = -0.032 
    DVT0W =      0 
    DVT1W =      0 
    DVT2W =      0 
    DROUT =   0.56 
    DSUB =    0.1 
    VTH0 = -0.587 
    EU =      1 
    UA =  2e-09 
    UA1 = 4.31e-09 
    UB =  5e-19 
    UB1 = 7.61e-18 
    UC =      0 
    UC1 = -5.6e-11 
    U0 =  0.021 
    UTE =   -1.5 
    VOFF = -0.126 
    VOFFL =      0 
    MINV =   0.05 
    FPROUT =    0.2 
    PDITS =   0.08 
    PDITSD =   0.23 
    PDITSL = 2.3e+06 
    DELTA =   0.01 
    RDSW =    250 
    RDSWMIN =      0 
    RDWMIN =      0 
    RSWMIN =      0 
    RDW =     75 
    RSW =     75 
    PRWG =      0 
    PRWB =      0 
    PRT =      0 
    ETA0 = 0.0125 
    ETAB =      0 
    PCLM =   0.12 
    PDIBLC1 =  0.001 
    PDIBLC2 =  0.001 
    PDIBLCB = 3.4e-08 
    PSCBE1 = 8.14e+08 
    PSCBE2 = 9.58e-07 
    PVAG =  1e-20 
    WR =      1 
    DWG =      0 
    DWB =      0 
    XW =      0 
    XWREF =      0 
    XL =      0 
    XLREF =      0 
    B0 =      0 
    B1 =      0 
    ALPHA0 =  0.074 
    ALPHA1 =  0.005 
    AGIDL = 0.0002 
    BGIDL = 2.1e+09 
    CGIDL = 0.0002 
    PHIN =      0 
    EGIDL =    0.8 
    AIGC = 0.0097 
    BIGC = 0.00125 
    CIGC = 0.0008 
    AIGSD = 0.0097 
    BIGSD = 0.00125 
    CIGSD = 0.0008 
    AIGBACC =  0.012 
    BIGBACC = 0.0028 
    CIGBACC =  0.002 
    AIGBINV =  0.014 
    BIGBINV =  0.004 
    CIGBINV =  0.004 
    NIGC =      1 
    NIGBINV =      3 
    NIGBACC =      1 
    NTOX =      1 
    EIGBINV =    1.1 
    PIGCD =      1 
    POXEDGE =      1 
    XRCRG1 =     12 
    TNOIA =    1.5 
    TNOIB =    3.5 
    NTNOI =      1 
    XRCRG2 =      5 
    BETA0 =     30 
    IJTHDFWD =   0.01 
    IJTHSFWD =   0.01 
    IJTHDREV =  0.001 
    IJTHSREV =  0.001 
    XJBVD =      1 
    XJBVS =      1 
    BVD =     10 
    BVS =     10 
    VFB =   0.55 
    GBMIN =  1e-10 
    RBDB =     15 
    RBPB =      5 
    RBSB =     15 
    RBPS =     15 
    RBPD =     15 
    CGSL = 2.653e-10 
    CGDL = 2.653e-10 
    CKAPPAS =   0.03 
    CKAPPAD =   0.03 
    CF = 1.186e-10 
    CLC =  1e-07 
    CLE =    0.6 
    DWC =  5e-09 
    DLC =      0 
    DLCIG =      0 
    DWJ =      0 
    VFBCV =     -1 
    ACDE =      1 
    MOIN =     15 
    NOFF =    0.9 
    VOFFCV =   0.02 
    DMCG =      0 
    DMCI =      0 
    DMDG =      0 
    DMCGT =      0 
    XGW =      0 
    XGL =      0 
    RSHG =    0.4 
    NGCON =      1 
    TCJ =  0.001 
    TPB =  0.005 
    TCJSW =  0.001 
    TPBSW =  0.005 
    TCJSWG =  0.001 
    TPBSWG =  0.005 
    SK0 =      0 
    SK1 =      0 
    SK2 =      0 
    SL =  2e-06 
    SW =  2e-06 
    K =      0 
    TNOM =  300.1 
    CGSO = 1.1e-10 
    CGDO = 1.1e-10 
    CGBO = 2.56e-11 
    XPART =      0 
    RSH =      5 
    JSS = 0.0001 
    JSWS =  1e-11 
    JSWGS =  1e-10 
    PBS =      1 
    MJS =    0.5 
    PBSWS =      1 
    MJSWS =   0.33 
    CJS = 0.0005 
    CJSWS =  5e-10 
    NJS =      1 
    PBSWGS =      1 
    MJSWGS =   0.33 
    CJSWGS =  3e-10 
    XTIS =      3 
    JSD = 0.0001 
    JSWD =  1e-11 
    JSWGD =  1e-10 
    PBD =      1 
    MJD =    0.5 
    PBSWD =      1 
    MJSWD =   0.33 
    CJD = 0.0005 
    CJSWD =  5e-10 
    NJD =      1 
    PBSWGD =      1 
    MJSWGD =   0.33 
    CJSWGD =  5e-10 
    XTID =      3 
    LMLT =      1 
    WMLT =      1 
    LINT =      0 
    LL =      0 
    LLC =      0 
    LLN =      1 
    LW =      0 
    LWC =      0 
    LWN =      1 
    LWL =      0 
    LWLC =      0 
    LMIN =      0 
    LMAX =      1 
    WINT =  5e-09 
    WL =      0 
    WLC =      0 
    WLN =      1 
    WW =      0 
    WWC =      0 
    WWN =      1 
    WWL =      0 
    WWLC =      0 
    WMIN =      0 
    WMAX =      1 
    NOIA = 6.188e+40 
    NOIB = 1.5e+25 
    NOIC = 8.75e+09 
    EM = 4.1e+07 
    EF =      1 
    AF =      1 
    KF =      0 
    TRS =      0 
    TRD =      0 
  **info** (half_adder.sp:80) DC voltage reset to initial transient source value in source 0:va. new dc=0.0000D+00
  **warning** (nmos:mn1 (half_adder.sp:59)) Warning:  Acde = 0.280299 may be too small in BSIM4 model with w=4.5e-08 l=4.5e-08.
  

  **warning** the following singular supplies were terminated to 1 meg resistor 
          supply       node1            node2
(half_adder.sp:22)vsupplyl                0:vddl             defined in subckt 0                     0:0                defined in subckt 0               
      
 **info** set option symb=1 internally to help for convergence.
 *****************************************************************
 ******  option summary
 ******
 runlvl  = 3         bypass  = 2.0000    
  Opening plot unit= 79
 file=C:\Users\Ali_Negary\Desktop\IUST\Semester 3\Low-Power System Design\Final Exam\Question2\Array_Multiplier\8th_try - HalfAdder\half_adder.pa0

 ******  
 ****half adder design****

 ****** operating point information tnom=  25.000 temp=  25.000 ******
 ****** operating point status is voltage   simulation time is   0.000e+00
    node    =voltage      node    =voltage      node    =voltage

 +0:carryf  = 2.037e-01 0:ina     = 0.000e+00 0:inb     = 1.000e+00
 +0:sumf    = 6.031e-01 0:vddh    = 3.000e+00 0:vddl    = 3.000e+00
 +0:vss     = 0.000e+00 2:n2      = 1.206e+00 3:n2      = 2.999e+00
 +3:n3      = 1.998e+00

 ******
 ****half adder design****

 ****** transient analysis tnom=  25.000 temp=  25.000 ******
x

 time         power     
              total     
  1.0000e-09  2.201e-04 
  1.1000e-09  2.207e-04 
  1.2000e-09  2.213e-04 
  1.3000e-09  2.217e-04 
  1.4000e-09  2.217e-04 
  1.5000e-09  2.217e-04 
  1.6000e-09  2.217e-04 
  1.7000e-09  2.217e-04 
  1.8000e-09  2.217e-04 
  1.9000e-09  2.217e-04 
  2.0000e-09  2.217e-04 
  2.1000e-09  5.909e-04 
  2.2000e-09  6.019e-04 
  2.3000e-09  6.129e-04 
  2.4000e-09  6.208e-04 
  2.5000e-09  6.284e-04 
  2.6000e-09  6.304e-04 
  2.7000e-09  6.324e-04 
  2.8000e-09  6.343e-04 
  2.9000e-09  6.363e-04 
  3.0000e-09  6.380e-04 
  3.1000e-09  6.385e-04 
  3.2000e-09  6.390e-04 
  3.3000e-09  6.395e-04 
  3.4000e-09  6.399e-04 
  3.5000e-09  6.399e-04 
  3.6000e-09  6.399e-04 
  3.7000e-09  6.399e-04 
  3.8000e-09  6.399e-04 
  3.9000e-09  6.400e-04 
  4.0000e-09  6.401e-04 
  4.1000e-09  2.234e-04 
  4.2000e-09  2.222e-04 
  4.3000e-09  2.218e-04 
  4.4000e-09  2.224e-04 
  4.5000e-09  2.200e-04 
  4.6000e-09  2.212e-04 
  4.7000e-09  2.228e-04 
  4.8000e-09  2.231e-04 
  4.9000e-09  2.220e-04 
  5.0000e-09  2.210e-04 
  5.1000e-09  2.200e-04 
  5.2000e-09  2.204e-04 
  5.3000e-09  2.210e-04 
  5.4000e-09  2.217e-04 
  5.5000e-09  2.224e-04 
  5.6000e-09  2.230e-04 
  5.7000e-09  2.233e-04 
  5.8000e-09  2.222e-04 
  5.9000e-09  2.211e-04 
  6.0000e-09  2.199e-04 
  6.1000e-09  5.909e-04 
  6.2000e-09  6.019e-04 
  6.3000e-09  6.129e-04 
  6.4000e-09  6.208e-04 
  6.5000e-09  6.284e-04 
  6.6000e-09  6.304e-04 
  6.7000e-09  6.324e-04 
  6.8000e-09  6.343e-04 
  6.9000e-09  6.363e-04 
  7.0000e-09  6.380e-04 
  7.1000e-09  6.385e-04 
  7.2000e-09  6.390e-04 
  7.3000e-09  6.395e-04 
  7.4000e-09  6.399e-04 
  7.5000e-09  6.399e-04 
  7.6000e-09  6.399e-04 
  7.7000e-09  6.399e-04 
  7.8000e-09  6.399e-04 
  7.9000e-09  6.400e-04 
  8.0000e-09  6.401e-04 
  8.1000e-09  2.227e-04 
  8.2000e-09  2.230e-04 
  8.3000e-09  2.201e-04 
  8.4000e-09  2.223e-04 
  8.5000e-09  2.225e-04 
  8.6000e-09  2.211e-04 
  8.7000e-09  2.204e-04 
  8.8000e-09  2.213e-04 
  8.9000e-09  2.222e-04 
  9.0000e-09  2.231e-04 
  9.1000e-09  2.228e-04 
  9.2000e-09  2.222e-04 
  9.3000e-09  2.216e-04 
  9.4000e-09  2.211e-04 
  9.5000e-09  2.205e-04 
  9.6000e-09  2.203e-04 
  9.7000e-09  2.210e-04 
  9.8000e-09  2.217e-04 
  9.9000e-09  2.225e-04 
  1.0000e-08  2.232e-04 
  1.0100e-08  5.909e-04 
  1.0200e-08  6.019e-04 
  1.0300e-08  6.128e-04 
  1.0400e-08  6.208e-04 
  1.0500e-08  6.284e-04 
  1.0600e-08  6.304e-04 
  1.0700e-08  6.324e-04 
  1.0800e-08  6.343e-04 
  1.0900e-08  6.363e-04 
  1.1000e-08  6.380e-04 
  1.1100e-08  6.385e-04 
  1.1200e-08  6.390e-04 
  1.1300e-08  6.396e-04 
  1.1400e-08  6.399e-04 
  1.1500e-08  6.399e-04 
  1.1600e-08  6.399e-04 
  1.1700e-08  6.399e-04 
  1.1800e-08  6.399e-04 
  1.1900e-08  6.400e-04 
  1.2000e-08  6.401e-04 
  1.2100e-08  2.225e-04 
  1.2200e-08  2.204e-04 
  1.2300e-08  2.237e-04 
  1.2400e-08  2.202e-04 
  1.2500e-08  2.214e-04 
  1.2600e-08  2.237e-04 
  1.2700e-08  2.223e-04 
  1.2800e-08  2.208e-04 
  1.2900e-08  2.198e-04 
  1.3000e-08  2.209e-04 
  1.3100e-08  2.219e-04 
  1.3200e-08  2.229e-04 
  1.3300e-08  2.237e-04 
  1.3400e-08  2.230e-04 
  1.3500e-08  2.223e-04 
  1.3600e-08  2.217e-04 
  1.3700e-08  2.210e-04 
  1.3800e-08  2.203e-04 
  1.3900e-08  2.197e-04 
  1.4000e-08  2.233e-04 
  1.4100e-08  5.908e-04 
  1.4200e-08  6.016e-04 
  1.4300e-08  6.132e-04 
  1.4400e-08  6.208e-04 
  1.4500e-08  6.280e-04 
  1.4600e-08  6.301e-04 
  1.4700e-08  6.323e-04 
  1.4800e-08  6.345e-04 
  1.4900e-08  6.367e-04 
  1.5000e-08  6.383e-04 
  1.5100e-08  6.386e-04 
  1.5200e-08  6.390e-04 
  1.5300e-08  6.393e-04 
  1.5400e-08  6.396e-04 
  1.5500e-08  6.398e-04 
  1.5600e-08  6.399e-04 
  1.5700e-08  6.401e-04 
  1.5800e-08  6.403e-04 
  1.5900e-08  6.401e-04 
  1.6000e-08  6.397e-04 
  1.6100e-08  2.201e-04 
  1.6200e-08  2.236e-04 
  1.6300e-08  2.202e-04 
  1.6400e-08  2.237e-04 
  1.6500e-08  2.206e-04 
  1.6600e-08  2.205e-04 
  1.6700e-08  2.226e-04 
  1.6800e-08  2.236e-04 
  1.6900e-08  2.222e-04 
  1.7000e-08  2.208e-04 
  1.7100e-08  2.194e-04 
  1.7200e-08  2.203e-04 
  1.7300e-08  2.213e-04 
  1.7400e-08  2.222e-04 
  1.7500e-08  2.232e-04 
  1.7600e-08  2.239e-04 
  1.7700e-08  2.228e-04 
  1.7800e-08  2.217e-04 
  1.7900e-08  2.206e-04 
  1.8000e-08  2.195e-04 
  1.8100e-08  5.909e-04 
  1.8200e-08  6.019e-04 
  1.8300e-08  6.129e-04 
  1.8400e-08  6.208e-04 
  1.8500e-08  6.285e-04 
  1.8600e-08  6.304e-04 
  1.8700e-08  6.324e-04 
  1.8800e-08  6.343e-04 
  1.8900e-08  6.363e-04 
  1.9000e-08  6.380e-04 
  1.9100e-08  6.385e-04 
  1.9200e-08  6.390e-04 
  1.9300e-08  6.395e-04 
  1.9400e-08  6.400e-04 
  1.9500e-08  6.399e-04 
  1.9600e-08  6.399e-04 
  1.9700e-08  6.399e-04 
  1.9800e-08  6.399e-04 
  1.9900e-08  6.400e-04 
  2.0000e-08  6.401e-04 
  2.0100e-08  2.222e-04 
  2.0200e-08  2.222e-04 
  2.0300e-08  2.210e-04 
  2.0400e-08  2.215e-04 
  2.0500e-08  2.231e-04 
  2.0600e-08  2.220e-04 
  2.0700e-08  2.209e-04 
  2.0800e-08  2.205e-04 
  2.0900e-08  2.212e-04 
  2.1000e-08  2.219e-04 
  2.1100e-08  2.226e-04 
  2.1200e-08  2.230e-04 
  2.1300e-08  2.226e-04 
  2.1400e-08  2.222e-04 
  2.1500e-08  2.217e-04 
  2.1600e-08  2.213e-04 
  2.1700e-08  2.208e-04 
  2.1800e-08  2.204e-04 
  2.1900e-08  2.213e-04 
  2.2000e-08  2.230e-04 
  2.2100e-08  5.908e-04 
  2.2200e-08  6.016e-04 
  2.2300e-08  6.131e-04 
  2.2400e-08  6.207e-04 
  2.2500e-08  6.273e-04 
  2.2600e-08  6.308e-04 
  2.2700e-08  6.325e-04 
  2.2800e-08  6.341e-04 
  2.2900e-08  6.358e-04 
  2.3000e-08  6.374e-04 
  2.3100e-08  6.388e-04 
  2.3200e-08  6.391e-04 
  2.3300e-08  6.394e-04 
  2.3400e-08  6.396e-04 
  2.3500e-08  6.399e-04 
  2.3600e-08  6.399e-04 
  2.3700e-08  6.400e-04 
  2.3800e-08  6.400e-04 
  2.3900e-08  6.401e-04 
  2.4000e-08  6.401e-04 
  2.4100e-08  2.220e-04 
  2.4200e-08  2.231e-04 
  2.4300e-08  2.219e-04 
  2.4400e-08  2.220e-04 
  2.4500e-08  2.200e-04 
  2.4600e-08  2.224e-04 
  2.4700e-08  2.235e-04 
  2.4800e-08  2.219e-04 
  2.4900e-08  2.203e-04 
  2.5000e-08  2.199e-04 
  2.5100e-08  2.210e-04 
  2.5200e-08  2.221e-04 
  2.5300e-08  2.232e-04 
  2.5400e-08  2.238e-04 
  2.5500e-08  2.231e-04 
  2.5600e-08  2.224e-04 
  2.5700e-08  2.216e-04 
  2.5800e-08  2.209e-04 
  2.5900e-08  2.202e-04 
  2.6000e-08  2.195e-04 
  2.6100e-08  5.909e-04 
  2.6200e-08  6.019e-04 
  2.6300e-08  6.129e-04 
  2.6400e-08  6.208e-04 
  2.6500e-08  6.285e-04 
  2.6600e-08  6.304e-04 
  2.6700e-08  6.324e-04 
  2.6800e-08  6.343e-04 
  2.6900e-08  6.363e-04 
  2.7000e-08  6.380e-04 
  2.7100e-08  6.385e-04 
  2.7200e-08  6.390e-04 
  2.7300e-08  6.395e-04 
  2.7400e-08  6.400e-04 
  2.7500e-08  6.399e-04 
  2.7600e-08  6.399e-04 
  2.7700e-08  6.399e-04 
  2.7800e-08  6.399e-04 
  2.7900e-08  6.400e-04 
  2.8000e-08  6.401e-04 
  2.8100e-08  2.222e-04 
  2.8200e-08  2.222e-04 
  2.8300e-08  2.210e-04 
  2.8400e-08  2.214e-04 
  2.8500e-08  2.231e-04 
  2.8600e-08  2.220e-04 
  2.8700e-08  2.209e-04 
  2.8800e-08  2.205e-04 
  2.8900e-08  2.212e-04 
  2.9000e-08  2.219e-04 
  2.9100e-08  2.226e-04 
  2.9200e-08  2.231e-04 
  2.9300e-08  2.226e-04 
  2.9400e-08  2.222e-04 
  2.9500e-08  2.217e-04 
  2.9600e-08  2.213e-04 
  2.9700e-08  2.208e-04 
  2.9800e-08  2.204e-04 
  2.9900e-08  2.212e-04 
  3.0000e-08  2.229e-04 
  3.0100e-08  5.908e-04 
  3.0200e-08  6.016e-04 
  3.0300e-08  6.131e-04 
  3.0400e-08  6.208e-04 
  3.0500e-08  6.270e-04 
  3.0600e-08  6.312e-04 
  3.0700e-08  6.326e-04 
  3.0800e-08  6.341e-04 
  3.0900e-08  6.355e-04 
  3.1000e-08  6.369e-04 
  3.1100e-08  6.384e-04 
  3.1200e-08  6.391e-04 
  3.1300e-08  6.394e-04 
  3.1400e-08  6.396e-04 
  3.1500e-08  6.398e-04 
  3.1600e-08  6.399e-04 
  3.1700e-08  6.400e-04 
  3.1800e-08  6.400e-04 
  3.1900e-08  6.401e-04 
  3.2000e-08  6.401e-04 
  3.2100e-08  2.220e-04 
  3.2200e-08  2.231e-04 
  3.2300e-08  2.220e-04 
  3.2400e-08  2.220e-04 
  3.2500e-08  2.200e-04 
  3.2600e-08  2.224e-04 
  3.2700e-08  2.235e-04 
  3.2800e-08  2.219e-04 
  3.2900e-08  2.203e-04 
  3.3000e-08  2.199e-04 
  3.3100e-08  2.210e-04 
  3.3200e-08  2.222e-04 
  3.3300e-08  2.233e-04 
  3.3400e-08  2.238e-04 
  3.3500e-08  2.231e-04 
  3.3600e-08  2.223e-04 
  3.3700e-08  2.216e-04 
  3.3800e-08  2.209e-04 
  3.3900e-08  2.202e-04 
  3.4000e-08  2.195e-04 
  3.4100e-08  5.909e-04 
  3.4200e-08  6.019e-04 
  3.4300e-08  6.129e-04 
  3.4400e-08  6.208e-04 
  3.4500e-08  6.285e-04 
  3.4600e-08  6.304e-04 
  3.4700e-08  6.324e-04 
  3.4800e-08  6.343e-04 
  3.4900e-08  6.363e-04 
  3.5000e-08  6.380e-04 
  3.5100e-08  6.385e-04 
  3.5200e-08  6.390e-04 
  3.5300e-08  6.395e-04 
  3.5400e-08  6.400e-04 
  3.5500e-08  6.399e-04 
  3.5600e-08  6.399e-04 
  3.5700e-08  6.399e-04 
  3.5800e-08  6.399e-04 
  3.5900e-08  6.400e-04 
  3.6000e-08  6.401e-04 
  3.6100e-08  2.222e-04 
  3.6200e-08  2.222e-04 
  3.6300e-08  2.210e-04 
  3.6400e-08  2.214e-04 
  3.6500e-08  2.231e-04 
  3.6600e-08  2.220e-04 
  3.6700e-08  2.209e-04 
  3.6800e-08  2.205e-04 
  3.6900e-08  2.212e-04 
  3.7000e-08  2.219e-04 
  3.7100e-08  2.226e-04 
  3.7200e-08  2.231e-04 
  3.7300e-08  2.226e-04 
  3.7400e-08  2.222e-04 
  3.7500e-08  2.217e-04 
  3.7600e-08  2.213e-04 
  3.7700e-08  2.208e-04 
  3.7800e-08  2.204e-04 
  3.7900e-08  2.212e-04 
  3.8000e-08  2.229e-04 
  3.8100e-08  5.908e-04 
  3.8200e-08  6.016e-04 
  3.8300e-08  6.131e-04 
  3.8400e-08  6.208e-04 
  3.8500e-08  6.270e-04 
  3.8600e-08  6.312e-04 
  3.8700e-08  6.326e-04 
  3.8800e-08  6.341e-04 
  3.8900e-08  6.355e-04 
  3.9000e-08  6.369e-04 
  3.9100e-08  6.384e-04 
  3.9200e-08  6.391e-04 
  3.9300e-08  6.394e-04 
  3.9400e-08  6.396e-04 
  3.9500e-08  6.398e-04 
  3.9600e-08  6.399e-04 
  3.9700e-08  6.400e-04 
  3.9800e-08  6.400e-04 
  3.9900e-08  6.401e-04 
  4.0000e-08  6.401e-04 
  4.0100e-08  2.220e-04 
  4.0200e-08  2.231e-04 
  4.0300e-08  2.220e-04 
  4.0400e-08  2.220e-04 
  4.0500e-08  2.200e-04 
  4.0600e-08  2.224e-04 
  4.0700e-08  2.235e-04 
  4.0800e-08  2.219e-04 
  4.0900e-08  2.203e-04 
  4.1000e-08  2.199e-04 
  4.1100e-08  2.210e-04 
  4.1200e-08  2.222e-04 
  4.1300e-08  2.233e-04 
  4.1400e-08  2.238e-04 
  4.1500e-08  2.231e-04 
  4.1600e-08  2.223e-04 
  4.1700e-08  2.216e-04 
  4.1800e-08  2.209e-04 
  4.1900e-08  2.202e-04 
  4.2000e-08  2.195e-04 
  4.2100e-08  5.909e-04 
  4.2200e-08  6.019e-04 
  4.2300e-08  6.129e-04 
  4.2400e-08  6.208e-04 
  4.2500e-08  6.285e-04 
  4.2600e-08  6.304e-04 
  4.2700e-08  6.324e-04 
  4.2800e-08  6.343e-04 
  4.2900e-08  6.363e-04 
  4.3000e-08  6.380e-04 
  4.3100e-08  6.385e-04 
  4.3200e-08  6.390e-04 
  4.3300e-08  6.395e-04 
  4.3400e-08  6.400e-04 
  4.3500e-08  6.399e-04 
  4.3600e-08  6.399e-04 
  4.3700e-08  6.399e-04 
  4.3800e-08  6.399e-04 
  4.3900e-08  6.400e-04 
  4.4000e-08  6.401e-04 
  4.4100e-08  2.222e-04 
  4.4200e-08  2.222e-04 
  4.4300e-08  2.210e-04 
  4.4400e-08  2.214e-04 
  4.4500e-08  2.231e-04 
  4.4600e-08  2.220e-04 
  4.4700e-08  2.209e-04 
  4.4800e-08  2.205e-04 
  4.4900e-08  2.212e-04 
  4.5000e-08  2.219e-04 
  4.5100e-08  2.226e-04 
  4.5200e-08  2.231e-04 
  4.5300e-08  2.226e-04 
  4.5400e-08  2.222e-04 
  4.5500e-08  2.217e-04 
  4.5600e-08  2.213e-04 
  4.5700e-08  2.208e-04 
  4.5800e-08  2.204e-04 
  4.5900e-08  2.212e-04 
  4.6000e-08  2.229e-04 
  4.6100e-08  5.908e-04 
  4.6200e-08  6.016e-04 
  4.6300e-08  6.131e-04 
  4.6400e-08  6.208e-04 
  4.6500e-08  6.270e-04 
  4.6600e-08  6.312e-04 
  4.6700e-08  6.326e-04 
  4.6800e-08  6.341e-04 
  4.6900e-08  6.355e-04 
  4.7000e-08  6.369e-04 
  4.7100e-08  6.384e-04 
  4.7200e-08  6.391e-04 
  4.7300e-08  6.394e-04 
  4.7400e-08  6.396e-04 
  4.7500e-08  6.398e-04 
  4.7600e-08  6.399e-04 
  4.7700e-08  6.400e-04 
  4.7800e-08  6.400e-04 
  4.7900e-08  6.401e-04 
  4.8000e-08  6.401e-04 
  4.8100e-08  2.220e-04 
  4.8200e-08  2.231e-04 
  4.8300e-08  2.220e-04 
  4.8400e-08  2.220e-04 
  4.8500e-08  2.200e-04 
  4.8600e-08  2.224e-04 
  4.8700e-08  2.235e-04 
  4.8800e-08  2.219e-04 
  4.8900e-08  2.203e-04 
  4.9000e-08  2.199e-04 
  4.9100e-08  2.210e-04 
  4.9200e-08  2.222e-04 
  4.9300e-08  2.233e-04 
  4.9400e-08  2.238e-04 
  4.9500e-08  2.230e-04 
  4.9600e-08  2.223e-04 
  4.9700e-08  2.216e-04 
  4.9800e-08  2.209e-04 
  4.9900e-08  2.202e-04 
  5.0000e-08  2.194e-04 
y

          ***** job concluded
 ******  
 ****half adder design****

 ****** job statistics summary tnom=  25.000 temp=  25.000 ******

  ******  HSPICE Threads Information  ******

  Command Line Threads Count :     1
  Available CPU Count        :     4
  Actual Threads Count       :     1


  ******  Circuit Statistics  ******
  # nodes       =      51 # elements   =      16
  # resistors   =       1 # capacitors =       0 # inductors   =       0
  # mutual_inds =       0 # vccs       =       0 # vcvs        =       0
  # cccs        =       0 # ccvs       =       0 # volt_srcs   =       5
  # curr_srcs   =       0 # diodes     =       0 # bjts        =       0
  # jfets       =       0 # mosfets    =      10 # U elements  =       0
  # T elements  =       0 # W elements =       0 # B elements  =       0
  # S elements  =       0 # P elements =       0 # va device   =       0
  # vector_srcs =       0 # N elements =       0


  ******  Runtime Statistics (seconds)  ******

  analysis           time    # points   tot. iter  conv.iter
  op point           0.01           1         125
  transient          0.09         491        1832         533 rev=        12
  readin             0.02
  errchk             0.01
  setup              0.00
  output             0.00


           peak memory used         62.30 megabytes
           total cpu time            0.14 seconds
           total elapsed time        0.17 seconds
           job started at     09:12:45 01/25/2022
           job ended   at     09:12:45 01/25/2022
           job total runtime         0.17 seconds


  lic: Release hspice token(s) 
 lic: total license checkout elapse time:        0.03(s)
