 ****** HSPICE -- P-2019.06-SP1-1 win64 (Sep 27 2019) ******                    
  Copyright (c) 1986 - 2022 by Synopsys, Inc. All Rights Reserved.              
  This software and the associated documentation are proprietary
  to Synopsys, Inc. This software may only be used in accordance
  with the terms and conditions of a written license agreement with
  Synopsys, Inc. All other use, reproduction, or distribution of
  this software is strictly prohibited.
  Input File: and_gate.sp                                                       
  Command line options: C:\synopsys\Hspice_P-2019.06-SP1-1\WIN64\hspice.com -i and_gate.sp -o C:\Users\Ali_Negary\Desktop\IUST\Semester 3\Low-Power System Design\Final Exam\Question2\Array_Multiplier\3rd_try - And Gate\and_gate.lis
  Start time: Mon Jan 24 20:44:11 2022
  lic:  
  lic: FLEXlm: SDK_12.3 
  lic: USER:   Ali_Negary           HOSTNAME: AliNegary-Desktop 
  lic: HOSTID: "d0534943d96d"       PID:      10440 
  lic: Using FLEXlm license file: 
  lic: 27000@AliNegary-Desktop 
  lic: Checkout 1 hspice 
  lic: License/Maintenance for hspice will expire on 30-dec-2030/2030.12 
  lic: 1(in_use)/99(total) FLOATING license(s) on SERVER 27000@AliNegary-Desktop
  
  lic:   
1****** HSPICE -- P-2019.06-SP1-1 win64 (Sep 27 2019) ******                    
 ******  
 ****and gate design****

 ****** circuit name directory
 circuit number to circuit name directory
   number circuitname                     definition         multiplier
        0 main circuit
        1 xand1.                          and                1.00 

 **warning** It is recommended that you set start explicitly:
             .TRAN tstep tstop START=val


 ******  
 ****and gate design****

 ****** mos   model parameters tnom=  25.000 temp=  25.000 ******
 Model file: cmos_45nm.lib
 Model line:            5
 Model Name: nmos  
 BSIM4 Model (Level 54)
    MOBMOD = 0
    BINUNIT = 1
    PARAMCHK = 1
    CAPMOD = 2
    DIOMOD = 1
    RDSMOD = 0
    TRNQSMOD = 0
    ACNQSMOD = 0
    RBODYMOD = 1
    RGATEMOD = 1
    PERMOD = 1
    GEOMOD = 1
    RGEOMOD = 0
    FNOIMOD = 1
    TNOIMOD = 0
    IGCMOD = 1
    IGBMOD = 1
    STIMOD = 0
    VERSION =      4 
    TOXREF = 1.8e-09 
    TOXE = 1.8e-09 
    TOXP = 1.5e-09 
    TOXM = 1.8e-09 
    DTOX =  3e-10 
    EPSROX =    3.9 
    CDSC =      0 
    CDSCB =      0 
    CDSCD =      0 
    CIT =      0 
    NFACTOR =    1.6 
    XJ = 1.4e-08 
    VSAT = 1.3e+05 
    A0 =      1 
    AGS =      0 
    A1 =      0 
    A2 =      1 
    AT = 3.3e+04 
    KETA =   0.04 
    NSUB =  6e+16 
    NDEP = 3.24e+18 
    NSD =  2e+20 
    NGATE =  1e+23 
    GAMMA1 =      0 
    GAMMA2 =      0 
    VBX =      0 
    VBM =     -3 
    XT = 1.55e-07 
    K1 =    0.4 
    KT1 =  -0.11 
    KT1L =      0 
    KT2 =  0.022 
    K2 =      0 
    K3 =      0 
    K3B =      0 
    LPE0 =      0 
    LPEB =      0 
    DVTP0 =  1e-10 
    DVTP1 =    0.1 
    W0 = 2.5e-06 
    DVT0 =      1 
    DVT1 =      2 
    DVT2 =      0 
    DVT0W =      0 
    DVT1W =      0 
    DVT2W =      0 
    DROUT =    0.5 
    DSUB =    0.1 
    VTH0 = 0.6226 
    EU =   1.67 
    UA =  6e-10 
    UA1 = 4.31e-09 
    UB = 1.2e-18 
    UB1 = 7.61e-18 
    UC =      0 
    UC1 = -5.6e-11 
    U0 =  0.049 
    UTE =   -1.5 
    VOFF =  -0.13 
    VOFFL =      0 
    MINV =   0.05 
    FPROUT =    0.2 
    PDITS =   0.08 
    PDITSD =   0.23 
    PDITSL = 2.3e+06 
    DELTA =   0.01 
    RDSW =    210 
    RDSWMIN =      0 
    RDWMIN =      0 
    RSWMIN =      0 
    RDW =     80 
    RSW =     80 
    PRWG =      0 
    PRWB =      0 
    PRT =      0 
    ETA0 = 0.0125 
    ETAB =      0 
    PCLM =   0.02 
    PDIBLC1 =  0.001 
    PDIBLC2 =  0.001 
    PDIBLCB = -0.005 
    PSCBE1 = 8.14e+08 
    PSCBE2 =  1e-07 
    PVAG =  1e-20 
    WR =      1 
    DWG =      0 
    DWB =      0 
    XW =      0 
    XWREF =      0 
    XL =      0 
    XLREF =      0 
    B0 =      0 
    B1 =      0 
    ALPHA0 =  0.074 
    ALPHA1 =  0.005 
    AGIDL = 0.0002 
    BGIDL = 2.1e+09 
    CGIDL = 0.0002 
    PHIN =      0 
    EGIDL =    0.8 
    AIGC = 0.01521 
    BIGC = 0.002743 
    CIGC =  0.002 
    AIGSD = 0.01521 
    BIGSD = 0.002743 
    CIGSD =  0.002 
    AIGBACC =  0.012 
    BIGBACC = 0.0028 
    CIGBACC =  0.002 
    AIGBINV =  0.014 
    BIGBINV =  0.004 
    CIGBINV =  0.004 
    NIGC =      1 
    NIGBINV =      3 
    NIGBACC =      1 
    NTOX =      1 
    EIGBINV =    1.1 
    PIGCD =      1 
    POXEDGE =      1 
    XRCRG1 =     12 
    TNOIA =    1.5 
    TNOIB =    3.5 
    NTNOI =      1 
    XRCRG2 =      5 
    BETA0 =     30 
    IJTHDFWD =   0.01 
    IJTHSFWD =   0.01 
    IJTHDREV =  0.001 
    IJTHSREV =  0.001 
    XJBVD =      1 
    XJBVS =      1 
    BVD =     10 
    BVS =     10 
    VFB =  -0.55 
    GBMIN =  1e-10 
    RBDB =     15 
    RBPB =      5 
    RBSB =     15 
    RBPS =     15 
    RBPD =     15 
    CGSL = 2.653e-10 
    CGDL = 2.653e-10 
    CKAPPAS =   0.03 
    CKAPPAD =   0.03 
    CF = 1.189e-10 
    CLC =  1e-07 
    CLE =    0.6 
    DWC =  5e-09 
    DLC =      0 
    DLCIG =      0 
    DWJ =      0 
    VFBCV =     -1 
    ACDE =      1 
    MOIN =     15 
    NOFF =    0.9 
    VOFFCV =   0.02 
    DMCG =      0 
    DMCI =      0 
    DMDG =      0 
    DMCGT =      0 
    XGW =      0 
    XGL =      0 
    RSHG =    0.4 
    NGCON =      1 
    TCJ =  0.001 
    TPB =  0.005 
    TCJSW =  0.001 
    TPBSW =  0.005 
    TCJSWG =  0.001 
    TPBSWG =  0.005 
    SK0 =      0 
    SK1 =      0 
    SK2 =      0 
    SL =  2e-06 
    SW =  2e-06 
    K =      0 
    TNOM =  300.1 
    CGSO = 1.1e-10 
    CGDO = 1.1e-10 
    CGBO = 2.56e-11 
    XPART =      0 
    RSH =      5 
    JSS = 0.0001 
    JSWS =  1e-11 
    JSWGS =  1e-10 
    PBS =      1 
    MJS =    0.5 
    PBSWS =      1 
    MJSWS =   0.33 
    CJS = 0.0005 
    CJSWS =  5e-10 
    NJS =      1 
    PBSWGS =      1 
    MJSWGS =   0.33 
    CJSWGS =  3e-10 
    XTIS =      3 
    JSD = 0.0001 
    JSWD =  1e-11 
    JSWGD =  1e-10 
    PBD =      1 
    MJD =    0.5 
    PBSWD =      1 
    MJSWD =   0.33 
    CJD = 0.0005 
    CJSWD =  5e-10 
    NJD =      1 
    PBSWGD =      1 
    MJSWGD =   0.33 
    CJSWGD =  5e-10 
    XTID =      3 
    LMLT =      1 
    WMLT =      1 
    LINT =      0 
    LL =      0 
    LLC =      0 
    LLN =      1 
    LW =      0 
    LWC =      0 
    LWN =      1 
    LWL =      0 
    LWLC =      0 
    LMIN =      0 
    LMAX =      1 
    WINT =  5e-09 
    WL =      0 
    WLC =      0 
    WLN =      1 
    WW =      0 
    WWC =      0 
    WWN =      1 
    WWL =      0 
    WWLC =      0 
    WMIN =      0 
    WMAX =      1 
    NOIA = 6.25e+41 
    NOIB = 3.125e+26 
    NOIC = 8.75e+09 
    EM = 4.1e+07 
    EF =      1 
    AF =      1 
    KF =      0 
    TRS =      0 
    TRD =      0 
 Model file: cmos_45nm.lib
 Model line:           74
 Model Name: pmos  
 BSIM4 Model (Level 54)
    MOBMOD = 0
    BINUNIT = 1
    PARAMCHK = 1
    CAPMOD = 2
    DIOMOD = 1
    RDSMOD = 0
    TRNQSMOD = 0
    ACNQSMOD = 0
    RBODYMOD = 1
    RGATEMOD = 1
    PERMOD = 1
    GEOMOD = 1
    RGEOMOD = 0
    FNOIMOD = 1
    TNOIMOD = 0
    IGCMOD = 1
    IGBMOD = 1
    STIMOD = 0
    VERSION =      4 
    TOXREF = 1.82e-09 
    TOXE = 1.82e-09 
    TOXP = 1.5e-09 
    TOXM = 1.82e-09 
    DTOX = 3.2e-10 
    EPSROX =    3.9 
    CDSC =      0 
    CDSCB =      0 
    CDSCD =      0 
    CIT =      0 
    NFACTOR =    1.8 
    XJ = 1.4e-08 
    VSAT =  9e+04 
    A0 =      1 
    AGS =  1e-20 
    A1 =      0 
    A2 =      1 
    AT = 3.3e+04 
    KETA = -0.047 
    NSUB =  6e+16 
    NDEP = 2.44e+18 
    NSD =  2e+20 
    NGATE =  1e+23 
    GAMMA1 =      0 
    GAMMA2 =      0 
    VBX =      0 
    VBM =     -3 
    XT = 1.55e-07 
    K1 =    0.4 
    KT1 =  -0.11 
    KT1L =      0 
    KT2 =  0.022 
    K2 =  -0.01 
    K3 =      0 
    K3B =      0 
    LPE0 =      0 
    LPEB =      0 
    DVTP0 =  1e-11 
    DVTP1 =   0.05 
    W0 = 2.5e-06 
    DVT0 =      1 
    DVT1 =      2 
    DVT2 = -0.032 
    DVT0W =      0 
    DVT1W =      0 
    DVT2W =      0 
    DROUT =   0.56 
    DSUB =    0.1 
    VTH0 = -0.587 
    EU =      1 
    UA =  2e-09 
    UA1 = 4.31e-09 
    UB =  5e-19 
    UB1 = 7.61e-18 
    UC =      0 
    UC1 = -5.6e-11 
    U0 =  0.021 
    UTE =   -1.5 
    VOFF = -0.126 
    VOFFL =      0 
    MINV =   0.05 
    FPROUT =    0.2 
    PDITS =   0.08 
    PDITSD =   0.23 
    PDITSL = 2.3e+06 
    DELTA =   0.01 
    RDSW =    250 
    RDSWMIN =      0 
    RDWMIN =      0 
    RSWMIN =      0 
    RDW =     75 
    RSW =     75 
    PRWG =      0 
    PRWB =      0 
    PRT =      0 
    ETA0 = 0.0125 
    ETAB =      0 
    PCLM =   0.12 
    PDIBLC1 =  0.001 
    PDIBLC2 =  0.001 
    PDIBLCB = 3.4e-08 
    PSCBE1 = 8.14e+08 
    PSCBE2 = 9.58e-07 
    PVAG =  1e-20 
    WR =      1 
    DWG =      0 
    DWB =      0 
    XW =      0 
    XWREF =      0 
    XL =      0 
    XLREF =      0 
    B0 =      0 
    B1 =      0 
    ALPHA0 =  0.074 
    ALPHA1 =  0.005 
    AGIDL = 0.0002 
    BGIDL = 2.1e+09 
    CGIDL = 0.0002 
    PHIN =      0 
    EGIDL =    0.8 
    AIGC = 0.0097 
    BIGC = 0.00125 
    CIGC = 0.0008 
    AIGSD = 0.0097 
    BIGSD = 0.00125 
    CIGSD = 0.0008 
    AIGBACC =  0.012 
    BIGBACC = 0.0028 
    CIGBACC =  0.002 
    AIGBINV =  0.014 
    BIGBINV =  0.004 
    CIGBINV =  0.004 
    NIGC =      1 
    NIGBINV =      3 
    NIGBACC =      1 
    NTOX =      1 
    EIGBINV =    1.1 
    PIGCD =      1 
    POXEDGE =      1 
    XRCRG1 =     12 
    TNOIA =    1.5 
    TNOIB =    3.5 
    NTNOI =      1 
    XRCRG2 =      5 
    BETA0 =     30 
    IJTHDFWD =   0.01 
    IJTHSFWD =   0.01 
    IJTHDREV =  0.001 
    IJTHSREV =  0.001 
    XJBVD =      1 
    XJBVS =      1 
    BVD =     10 
    BVS =     10 
    VFB =   0.55 
    GBMIN =  1e-10 
    RBDB =     15 
    RBPB =      5 
    RBSB =     15 
    RBPS =     15 
    RBPD =     15 
    CGSL = 2.653e-10 
    CGDL = 2.653e-10 
    CKAPPAS =   0.03 
    CKAPPAD =   0.03 
    CF = 1.186e-10 
    CLC =  1e-07 
    CLE =    0.6 
    DWC =  5e-09 
    DLC =      0 
    DLCIG =      0 
    DWJ =      0 
    VFBCV =     -1 
    ACDE =      1 
    MOIN =     15 
    NOFF =    0.9 
    VOFFCV =   0.02 
    DMCG =      0 
    DMCI =      0 
    DMDG =      0 
    DMCGT =      0 
    XGW =      0 
    XGL =      0 
    RSHG =    0.4 
    NGCON =      1 
    TCJ =  0.001 
    TPB =  0.005 
    TCJSW =  0.001 
    TPBSW =  0.005 
    TCJSWG =  0.001 
    TPBSWG =  0.005 
    SK0 =      0 
    SK1 =      0 
    SK2 =      0 
    SL =  2e-06 
    SW =  2e-06 
    K =      0 
    TNOM =  300.1 
    CGSO = 1.1e-10 
    CGDO = 1.1e-10 
    CGBO = 2.56e-11 
    XPART =      0 
    RSH =      5 
    JSS = 0.0001 
    JSWS =  1e-11 
    JSWGS =  1e-10 
    PBS =      1 
    MJS =    0.5 
    PBSWS =      1 
    MJSWS =   0.33 
    CJS = 0.0005 
    CJSWS =  5e-10 
    NJS =      1 
    PBSWGS =      1 
    MJSWGS =   0.33 
    CJSWGS =  3e-10 
    XTIS =      3 
    JSD = 0.0001 
    JSWD =  1e-11 
    JSWGD =  1e-10 
    PBD =      1 
    MJD =    0.5 
    PBSWD =      1 
    MJSWD =   0.33 
    CJD = 0.0005 
    CJSWD =  5e-10 
    NJD =      1 
    PBSWGD =      1 
    MJSWGD =   0.33 
    CJSWGD =  5e-10 
    XTID =      3 
    LMLT =      1 
    WMLT =      1 
    LINT =      0 
    LL =      0 
    LLC =      0 
    LLN =      1 
    LW =      0 
    LWC =      0 
    LWN =      1 
    LWL =      0 
    LWLC =      0 
    LMIN =      0 
    LMAX =      1 
    WINT =  5e-09 
    WL =      0 
    WLC =      0 
    WLN =      1 
    WW =      0 
    WWC =      0 
    WWN =      1 
    WWL =      0 
    WWLC =      0 
    WMIN =      0 
    WMAX =      1 
    NOIA = 6.188e+40 
    NOIB = 1.5e+25 
    NOIC = 8.75e+09 
    EM = 4.1e+07 
    EF =      1 
    AF =      1 
    KF =      0 
    TRS =      0 
    TRD =      0 
  **info** (and_gate.sp:42) DC voltage reset to initial transient source value in source 0:va. new dc=0.0000D+00
  **warning** (nmos:mn1 (and_gate.sp:30)) Warning:  Acde = 0.280299 may be too small in BSIM4 model with w=4.5e-08 l=4.5e-08.
  

  **warning** the following singular supplies were terminated to 1 meg resistor 
          supply       node1            node2
(and_gate.sp:22)vsupplyl                0:vddl             defined in subckt 0                     0:0                defined in subckt 0               
      
 **info** set option symb=1 internally to help for convergence.
 *****************************************************************
 ******  option summary
 ******
 runlvl  = 3         bypass  = 2.0000    
  Opening plot unit= 79
 file=C:\Users\Ali_Negary\Desktop\IUST\Semester 3\Low-Power System Design\Final Exam\Question2\Array_Multiplier\3rd_try - And Gate\and_gate.pa0

 ******  
 ****and gate design****

 ****** operating point information tnom=  25.000 temp=  25.000 ******
 ****** operating point status is voltage   simulation time is   0.000e+00
    node    =voltage      node    =voltage      node    =voltage

 +0:ina     = 0.000e+00 0:inb     = 1.000e+00 0:outf    = 4.434e-08
 +0:vddh    = 1.000e+00 0:vddl    = 1.000e+00 0:vss     = 0.000e+00
 +1:n2      = 1.000e-00 1:n3      = 8.954e-01

 ******
 ****and gate design****

 ****** transient analysis tnom=  25.000 temp=  25.000 ******
x

 time         power     
              total     
  1.0000e-09  1.000e-06 
  1.1000e-09  1.000e-06 
  1.2000e-09  1.000e-06 
  1.3000e-09  1.000e-06 
  1.4000e-09  1.000e-06 
  1.5000e-09  1.000e-06 
  1.6000e-09  1.000e-06 
  1.7000e-09  1.000e-06 
  1.8000e-09  1.000e-06 
  1.9000e-09  1.000e-06 
  2.0000e-09  1.000e-06 
  2.1000e-09  1.389e-06 
  2.2000e-09  1.273e-06 
  2.3000e-09  1.150e-06 
  2.4000e-09  1.083e-06 
  2.5000e-09  1.047e-06 
  2.6000e-09  1.021e-06 
  2.7000e-09  1.011e-06 
  2.8000e-09  1.007e-06 
  2.9000e-09  1.005e-06 
  3.0000e-09  1.004e-06 
  3.1000e-09  1.003e-06 
  3.2000e-09  1.003e-06 
  3.3000e-09  1.002e-06 
  3.4000e-09  1.002e-06 
  3.5000e-09  1.002e-06 
  3.6000e-09  1.002e-06 
  3.7000e-09  1.001e-06 
  3.8000e-09  1.001e-06 
  3.9000e-09  1.001e-06 
  4.0000e-09  1.001e-06 
  4.1000e-09  1.000e-06 
  4.2000e-09  1.000e-06 
  4.3000e-09  1.000e-06 
  4.4000e-09  1.000e-06 
  4.5000e-09  1.000e-06 
  4.6000e-09  1.000e-06 
  4.7000e-09  1.000e-06 
  4.8000e-09  1.000e-06 
  4.9000e-09  1.000e-06 
  5.0000e-09  1.000e-06 
  5.1000e-09  1.000e-06 
  5.2000e-09  1.000e-06 
  5.3000e-09  1.000e-06 
  5.4000e-09  1.000e-06 
  5.5000e-09  1.000e-06 
  5.6000e-09  1.000e-06 
  5.7000e-09  1.000e-06 
  5.8000e-09  1.000e-06 
  5.9000e-09  1.000e-06 
  6.0000e-09  1.000e-06 
  6.1000e-09  1.393e-06 
  6.2000e-09  1.272e-06 
  6.3000e-09  1.153e-06 
  6.4000e-09  1.084e-06 
  6.5000e-09  1.046e-06 
  6.6000e-09  1.026e-06 
  6.7000e-09  1.009e-06 
  6.8000e-09  1.007e-06 
  6.9000e-09  1.005e-06 
  7.0000e-09  1.003e-06 
  7.1000e-09  1.003e-06 
  7.2000e-09  1.002e-06 
  7.3000e-09  1.002e-06 
  7.4000e-09  1.002e-06 
  7.5000e-09  1.002e-06 
  7.6000e-09  1.001e-06 
  7.7000e-09  1.001e-06 
  7.8000e-09  1.001e-06 
  7.9000e-09  1.001e-06 
  8.0000e-09  1.001e-06 
  8.1000e-09  1.000e-06 
  8.2000e-09  1.000e-06 
  8.3000e-09  1.000e-06 
  8.4000e-09  1.000e-06 
  8.5000e-09  1.000e-06 
  8.6000e-09  1.000e-06 
  8.7000e-09  1.000e-06 
  8.8000e-09  1.000e-06 
  8.9000e-09  1.000e-06 
  9.0000e-09  1.000e-06 
  9.1000e-09  1.000e-06 
  9.2000e-09  1.000e-06 
  9.3000e-09  1.000e-06 
  9.4000e-09  1.000e-06 
  9.5000e-09  1.000e-06 
  9.6000e-09  1.000e-06 
  9.7000e-09  1.000e-06 
  9.8000e-09  1.000e-06 
  9.9000e-09  1.000e-06 
  1.0000e-08  1.000e-06 
  1.0100e-08  1.392e-06 
  1.0200e-08  1.272e-06 
  1.0300e-08  1.149e-06 
  1.0400e-08  1.082e-06 
  1.0500e-08  1.047e-06 
  1.0600e-08  1.020e-06 
  1.0700e-08  1.011e-06 
  1.0800e-08  1.007e-06 
  1.0900e-08  1.005e-06 
  1.1000e-08  1.004e-06 
  1.1100e-08  1.003e-06 
  1.1200e-08  1.003e-06 
  1.1300e-08  1.002e-06 
  1.1400e-08  1.002e-06 
  1.1500e-08  1.002e-06 
  1.1600e-08  1.002e-06 
  1.1700e-08  1.001e-06 
  1.1800e-08  1.001e-06 
  1.1900e-08  1.001e-06 
  1.2000e-08  1.001e-06 
  1.2100e-08  1.000e-06 
  1.2200e-08  1.000e-06 
  1.2300e-08  1.000e-06 
  1.2400e-08  1.000e-06 
  1.2500e-08  1.000e-06 
  1.2600e-08  1.000e-06 
  1.2700e-08  1.000e-06 
  1.2800e-08  1.000e-06 
  1.2900e-08  1.000e-06 
  1.3000e-08  1.000e-06 
  1.3100e-08  1.000e-06 
  1.3200e-08  1.000e-06 
  1.3300e-08  1.000e-06 
  1.3400e-08  1.000e-06 
  1.3500e-08  1.000e-06 
  1.3600e-08  1.000e-06 
  1.3700e-08  1.000e-06 
  1.3800e-08  1.000e-06 
  1.3900e-08  1.000e-06 
  1.4000e-08  1.000e-06 
  1.4100e-08  1.390e-06 
  1.4200e-08  1.272e-06 
  1.4300e-08  1.148e-06 
  1.4400e-08  1.082e-06 
  1.4500e-08  1.047e-06 
  1.4600e-08  1.019e-06 
  1.4700e-08  1.011e-06 
  1.4800e-08  1.007e-06 
  1.4900e-08  1.005e-06 
  1.5000e-08  1.004e-06 
  1.5100e-08  1.003e-06 
  1.5200e-08  1.003e-06 
  1.5300e-08  1.002e-06 
  1.5400e-08  1.002e-06 
  1.5500e-08  1.002e-06 
  1.5600e-08  1.002e-06 
  1.5700e-08  1.001e-06 
  1.5800e-08  1.001e-06 
  1.5900e-08  1.001e-06 
  1.6000e-08  1.001e-06 
  1.6100e-08  1.000e-06 
  1.6200e-08  1.000e-06 
  1.6300e-08  1.000e-06 
  1.6400e-08  1.000e-06 
  1.6500e-08  1.000e-06 
  1.6600e-08  1.000e-06 
  1.6700e-08  1.000e-06 
  1.6800e-08  1.000e-06 
  1.6900e-08  1.000e-06 
  1.7000e-08  1.000e-06 
  1.7100e-08  1.000e-06 
  1.7200e-08  1.000e-06 
  1.7300e-08  1.000e-06 
  1.7400e-08  1.000e-06 
  1.7500e-08  1.000e-06 
  1.7600e-08  1.000e-06 
  1.7700e-08  1.000e-06 
  1.7800e-08  1.000e-06 
  1.7900e-08  1.000e-06 
  1.8000e-08  1.000e-06 
  1.8100e-08  1.389e-06 
  1.8200e-08  1.273e-06 
  1.8300e-08  1.152e-06 
  1.8400e-08  1.083e-06 
  1.8500e-08  1.048e-06 
  1.8600e-08  1.026e-06 
  1.8700e-08  1.009e-06 
  1.8800e-08  1.007e-06 
  1.8900e-08  1.005e-06 
  1.9000e-08  1.003e-06 
  1.9100e-08  1.003e-06 
  1.9200e-08  1.002e-06 
  1.9300e-08  1.002e-06 
  1.9400e-08  1.002e-06 
  1.9500e-08  1.002e-06 
  1.9600e-08  1.002e-06 
  1.9700e-08  1.001e-06 
  1.9800e-08  1.001e-06 
  1.9900e-08  1.001e-06 
  2.0000e-08  1.001e-06 
  2.0100e-08  1.000e-06 
  2.0200e-08  1.000e-06 
  2.0300e-08  1.000e-06 
  2.0400e-08  1.000e-06 
  2.0500e-08  1.000e-06 
  2.0600e-08  1.000e-06 
  2.0700e-08  1.000e-06 
  2.0800e-08  1.000e-06 
  2.0900e-08  1.000e-06 
  2.1000e-08  1.000e-06 
  2.1100e-08  1.000e-06 
  2.1200e-08  1.000e-06 
  2.1300e-08  1.000e-06 
  2.1400e-08  1.000e-06 
  2.1500e-08  1.000e-06 
  2.1600e-08  1.000e-06 
  2.1700e-08  1.000e-06 
  2.1800e-08  1.000e-06 
  2.1900e-08  1.000e-06 
  2.2000e-08  1.000e-06 
  2.2100e-08  1.390e-06 
  2.2200e-08  1.272e-06 
  2.2300e-08  1.148e-06 
  2.2400e-08  1.082e-06 
  2.2500e-08  1.047e-06 
  2.2600e-08  1.020e-06 
  2.2700e-08  1.011e-06 
  2.2800e-08  1.007e-06 
  2.2900e-08  1.005e-06 
  2.3000e-08  1.004e-06 
  2.3100e-08  1.003e-06 
  2.3200e-08  1.003e-06 
  2.3300e-08  1.002e-06 
  2.3400e-08  1.002e-06 
  2.3500e-08  1.002e-06 
  2.3600e-08  1.002e-06 
  2.3700e-08  1.001e-06 
  2.3800e-08  1.001e-06 
  2.3900e-08  1.001e-06 
  2.4000e-08  1.001e-06 
  2.4100e-08  1.000e-06 
  2.4200e-08  1.000e-06 
  2.4300e-08  1.000e-06 
  2.4400e-08  1.000e-06 
  2.4500e-08  1.000e-06 
  2.4600e-08  1.000e-06 
  2.4700e-08  1.000e-06 
  2.4800e-08  1.000e-06 
  2.4900e-08  1.000e-06 
  2.5000e-08  1.000e-06 
  2.5100e-08  1.000e-06 
  2.5200e-08  1.000e-06 
  2.5300e-08  1.000e-06 
  2.5400e-08  1.000e-06 
  2.5500e-08  1.000e-06 
  2.5600e-08  1.000e-06 
  2.5700e-08  1.000e-06 
  2.5800e-08  1.000e-06 
  2.5900e-08  1.000e-06 
  2.6000e-08  1.000e-06 
  2.6100e-08  1.389e-06 
  2.6200e-08  1.273e-06 
  2.6300e-08  1.152e-06 
  2.6400e-08  1.083e-06 
  2.6500e-08  1.048e-06 
  2.6600e-08  1.026e-06 
  2.6700e-08  1.009e-06 
  2.6800e-08  1.007e-06 
  2.6900e-08  1.005e-06 
  2.7000e-08  1.003e-06 
  2.7100e-08  1.003e-06 
  2.7200e-08  1.002e-06 
  2.7300e-08  1.002e-06 
  2.7400e-08  1.002e-06 
  2.7500e-08  1.002e-06 
  2.7600e-08  1.002e-06 
  2.7700e-08  1.001e-06 
  2.7800e-08  1.001e-06 
  2.7900e-08  1.001e-06 
  2.8000e-08  1.001e-06 
  2.8100e-08  1.000e-06 
  2.8200e-08  1.000e-06 
  2.8300e-08  1.000e-06 
  2.8400e-08  1.000e-06 
  2.8500e-08  1.000e-06 
  2.8600e-08  1.000e-06 
  2.8700e-08  1.000e-06 
  2.8800e-08  1.000e-06 
  2.8900e-08  1.000e-06 
  2.9000e-08  1.000e-06 
  2.9100e-08  1.000e-06 
  2.9200e-08  1.000e-06 
  2.9300e-08  1.000e-06 
  2.9400e-08  1.000e-06 
  2.9500e-08  1.000e-06 
  2.9600e-08  1.000e-06 
  2.9700e-08  1.000e-06 
  2.9800e-08  1.000e-06 
  2.9900e-08  1.000e-06 
  3.0000e-08  1.000e-06 
  3.0100e-08  1.390e-06 
  3.0200e-08  1.272e-06 
  3.0300e-08  1.148e-06 
  3.0400e-08  1.082e-06 
  3.0500e-08  1.047e-06 
  3.0600e-08  1.020e-06 
  3.0700e-08  1.011e-06 
  3.0800e-08  1.007e-06 
  3.0900e-08  1.005e-06 
  3.1000e-08  1.004e-06 
  3.1100e-08  1.003e-06 
  3.1200e-08  1.003e-06 
  3.1300e-08  1.002e-06 
  3.1400e-08  1.002e-06 
  3.1500e-08  1.002e-06 
  3.1600e-08  1.002e-06 
  3.1700e-08  1.001e-06 
  3.1800e-08  1.001e-06 
  3.1900e-08  1.001e-06 
  3.2000e-08  1.001e-06 
  3.2100e-08  1.000e-06 
  3.2200e-08  1.000e-06 
  3.2300e-08  1.000e-06 
  3.2400e-08  1.000e-06 
  3.2500e-08  1.000e-06 
  3.2600e-08  1.000e-06 
  3.2700e-08  1.000e-06 
  3.2800e-08  1.000e-06 
  3.2900e-08  1.000e-06 
  3.3000e-08  1.000e-06 
  3.3100e-08  1.000e-06 
  3.3200e-08  1.000e-06 
  3.3300e-08  1.000e-06 
  3.3400e-08  1.000e-06 
  3.3500e-08  1.000e-06 
  3.3600e-08  1.000e-06 
  3.3700e-08  1.000e-06 
  3.3800e-08  1.000e-06 
  3.3900e-08  1.000e-06 
  3.4000e-08  1.000e-06 
  3.4100e-08  1.389e-06 
  3.4200e-08  1.273e-06 
  3.4300e-08  1.152e-06 
  3.4400e-08  1.083e-06 
  3.4500e-08  1.048e-06 
  3.4600e-08  1.026e-06 
  3.4700e-08  1.009e-06 
  3.4800e-08  1.007e-06 
  3.4900e-08  1.005e-06 
  3.5000e-08  1.003e-06 
  3.5100e-08  1.003e-06 
  3.5200e-08  1.002e-06 
  3.5300e-08  1.002e-06 
  3.5400e-08  1.002e-06 
  3.5500e-08  1.002e-06 
  3.5600e-08  1.002e-06 
  3.5700e-08  1.001e-06 
  3.5800e-08  1.001e-06 
  3.5900e-08  1.001e-06 
  3.6000e-08  1.001e-06 
  3.6100e-08  1.000e-06 
  3.6200e-08  1.000e-06 
  3.6300e-08  1.000e-06 
  3.6400e-08  1.000e-06 
  3.6500e-08  1.000e-06 
  3.6600e-08  1.000e-06 
  3.6700e-08  1.000e-06 
  3.6800e-08  1.000e-06 
  3.6900e-08  1.000e-06 
  3.7000e-08  1.000e-06 
  3.7100e-08  1.000e-06 
  3.7200e-08  1.000e-06 
  3.7300e-08  1.000e-06 
  3.7400e-08  1.000e-06 
  3.7500e-08  1.000e-06 
  3.7600e-08  1.000e-06 
  3.7700e-08  1.000e-06 
  3.7800e-08  1.000e-06 
  3.7900e-08  1.000e-06 
  3.8000e-08  1.000e-06 
  3.8100e-08  1.390e-06 
  3.8200e-08  1.272e-06 
  3.8300e-08  1.148e-06 
  3.8400e-08  1.082e-06 
  3.8500e-08  1.047e-06 
  3.8600e-08  1.020e-06 
  3.8700e-08  1.011e-06 
  3.8800e-08  1.007e-06 
  3.8900e-08  1.005e-06 
  3.9000e-08  1.004e-06 
  3.9100e-08  1.003e-06 
  3.9200e-08  1.003e-06 
  3.9300e-08  1.002e-06 
  3.9400e-08  1.002e-06 
  3.9500e-08  1.002e-06 
  3.9600e-08  1.002e-06 
  3.9700e-08  1.001e-06 
  3.9800e-08  1.001e-06 
  3.9900e-08  1.001e-06 
  4.0000e-08  1.001e-06 
  4.0100e-08  1.000e-06 
  4.0200e-08  1.000e-06 
  4.0300e-08  1.000e-06 
  4.0400e-08  1.000e-06 
  4.0500e-08  1.000e-06 
  4.0600e-08  1.000e-06 
  4.0700e-08  1.000e-06 
  4.0800e-08  1.000e-06 
  4.0900e-08  1.000e-06 
  4.1000e-08  1.000e-06 
  4.1100e-08  1.000e-06 
  4.1200e-08  1.000e-06 
  4.1300e-08  1.000e-06 
  4.1400e-08  1.000e-06 
  4.1500e-08  1.000e-06 
  4.1600e-08  1.000e-06 
  4.1700e-08  1.000e-06 
  4.1800e-08  1.000e-06 
  4.1900e-08  1.000e-06 
  4.2000e-08  1.000e-06 
  4.2100e-08  1.389e-06 
  4.2200e-08  1.273e-06 
  4.2300e-08  1.152e-06 
  4.2400e-08  1.083e-06 
  4.2500e-08  1.048e-06 
  4.2600e-08  1.026e-06 
  4.2700e-08  1.009e-06 
  4.2800e-08  1.007e-06 
  4.2900e-08  1.005e-06 
  4.3000e-08  1.003e-06 
  4.3100e-08  1.003e-06 
  4.3200e-08  1.002e-06 
  4.3300e-08  1.002e-06 
  4.3400e-08  1.002e-06 
  4.3500e-08  1.002e-06 
  4.3600e-08  1.002e-06 
  4.3700e-08  1.001e-06 
  4.3800e-08  1.001e-06 
  4.3900e-08  1.001e-06 
  4.4000e-08  1.001e-06 
  4.4100e-08  1.000e-06 
  4.4200e-08  1.000e-06 
  4.4300e-08  1.000e-06 
  4.4400e-08  1.000e-06 
  4.4500e-08  1.000e-06 
  4.4600e-08  1.000e-06 
  4.4700e-08  1.000e-06 
  4.4800e-08  1.000e-06 
  4.4900e-08  1.000e-06 
  4.5000e-08  1.000e-06 
  4.5100e-08  1.000e-06 
  4.5200e-08  1.000e-06 
  4.5300e-08  1.000e-06 
  4.5400e-08  1.000e-06 
  4.5500e-08  1.000e-06 
  4.5600e-08  1.000e-06 
  4.5700e-08  1.000e-06 
  4.5800e-08  1.000e-06 
  4.5900e-08  1.000e-06 
  4.6000e-08  1.000e-06 
  4.6100e-08  1.390e-06 
  4.6200e-08  1.272e-06 
  4.6300e-08  1.148e-06 
  4.6400e-08  1.082e-06 
  4.6500e-08  1.047e-06 
  4.6600e-08  1.020e-06 
  4.6700e-08  1.011e-06 
  4.6800e-08  1.007e-06 
  4.6900e-08  1.005e-06 
  4.7000e-08  1.004e-06 
  4.7100e-08  1.003e-06 
  4.7200e-08  1.003e-06 
  4.7300e-08  1.002e-06 
  4.7400e-08  1.002e-06 
  4.7500e-08  1.002e-06 
  4.7600e-08  1.002e-06 
  4.7700e-08  1.001e-06 
  4.7800e-08  1.001e-06 
  4.7900e-08  1.001e-06 
  4.8000e-08  1.001e-06 
  4.8100e-08  1.000e-06 
  4.8200e-08  1.000e-06 
  4.8300e-08  1.000e-06 
  4.8400e-08  1.000e-06 
  4.8500e-08  1.000e-06 
  4.8600e-08  1.000e-06 
  4.8700e-08  1.000e-06 
  4.8800e-08  1.000e-06 
  4.8900e-08  1.000e-06 
  4.9000e-08  1.000e-06 
  4.9100e-08  1.000e-06 
  4.9200e-08  1.000e-06 
  4.9300e-08  1.000e-06 
  4.9400e-08  1.000e-06 
  4.9500e-08  1.000e-06 
  4.9600e-08  1.000e-06 
  4.9700e-08  1.000e-06 
  4.9800e-08  1.000e-06 
  4.9900e-08  1.000e-06 
  5.0000e-08  1.000e-06 
  5.0100e-08  1.389e-06 
  5.0200e-08  1.273e-06 
  5.0300e-08  1.152e-06 
  5.0400e-08  1.083e-06 
  5.0500e-08  1.048e-06 
  5.0600e-08  1.026e-06 
  5.0700e-08  1.009e-06 
  5.0800e-08  1.007e-06 
  5.0900e-08  1.005e-06 
  5.1000e-08  1.003e-06 
  5.1100e-08  1.003e-06 
  5.1200e-08  1.002e-06 
  5.1300e-08  1.002e-06 
  5.1400e-08  1.002e-06 
  5.1500e-08  1.002e-06 
  5.1600e-08  1.002e-06 
  5.1700e-08  1.001e-06 
  5.1800e-08  1.001e-06 
  5.1900e-08  1.001e-06 
  5.2000e-08  1.001e-06 
  5.2100e-08  1.000e-06 
  5.2200e-08  1.000e-06 
  5.2300e-08  1.000e-06 
  5.2400e-08  1.000e-06 
  5.2500e-08  1.000e-06 
  5.2600e-08  1.000e-06 
  5.2700e-08  1.000e-06 
  5.2800e-08  1.000e-06 
  5.2900e-08  1.000e-06 
  5.3000e-08  1.000e-06 
  5.3100e-08  1.000e-06 
  5.3200e-08  1.000e-06 
  5.3300e-08  1.000e-06 
  5.3400e-08  1.000e-06 
  5.3500e-08  1.000e-06 
  5.3600e-08  1.000e-06 
  5.3700e-08  1.000e-06 
  5.3800e-08  1.000e-06 
  5.3900e-08  1.000e-06 
  5.4000e-08  1.000e-06 
  5.4100e-08  1.390e-06 
  5.4200e-08  1.272e-06 
  5.4300e-08  1.148e-06 
  5.4400e-08  1.082e-06 
  5.4500e-08  1.047e-06 
  5.4600e-08  1.020e-06 
  5.4700e-08  1.011e-06 
  5.4800e-08  1.007e-06 
  5.4900e-08  1.005e-06 
  5.5000e-08  1.004e-06 
  5.5100e-08  1.003e-06 
  5.5200e-08  1.003e-06 
  5.5300e-08  1.002e-06 
  5.5400e-08  1.002e-06 
  5.5500e-08  1.002e-06 
  5.5600e-08  1.002e-06 
  5.5700e-08  1.001e-06 
  5.5800e-08  1.001e-06 
  5.5900e-08  1.001e-06 
  5.6000e-08  1.001e-06 
  5.6100e-08  1.000e-06 
  5.6200e-08  1.000e-06 
  5.6300e-08  1.000e-06 
  5.6400e-08  1.000e-06 
  5.6500e-08  1.000e-06 
  5.6600e-08  1.000e-06 
  5.6700e-08  1.000e-06 
  5.6800e-08  1.000e-06 
  5.6900e-08  1.000e-06 
  5.7000e-08  1.000e-06 
  5.7100e-08  1.000e-06 
  5.7200e-08  1.000e-06 
  5.7300e-08  1.000e-06 
  5.7400e-08  1.000e-06 
  5.7500e-08  1.000e-06 
  5.7600e-08  1.000e-06 
  5.7700e-08  1.000e-06 
  5.7800e-08  1.000e-06 
  5.7900e-08  1.000e-06 
  5.8000e-08  1.000e-06 
  5.8100e-08  1.389e-06 
  5.8200e-08  1.273e-06 
  5.8300e-08  1.152e-06 
  5.8400e-08  1.083e-06 
  5.8500e-08  1.048e-06 
  5.8600e-08  1.026e-06 
  5.8700e-08  1.009e-06 
  5.8800e-08  1.007e-06 
  5.8900e-08  1.005e-06 
  5.9000e-08  1.003e-06 
  5.9100e-08  1.003e-06 
  5.9200e-08  1.002e-06 
  5.9300e-08  1.002e-06 
  5.9400e-08  1.002e-06 
  5.9500e-08  1.002e-06 
  5.9600e-08  1.002e-06 
  5.9700e-08  1.001e-06 
  5.9800e-08  1.001e-06 
  5.9900e-08  1.001e-06 
  6.0000e-08  1.001e-06 
  6.0100e-08  1.000e-06 
  6.0200e-08  1.000e-06 
  6.0300e-08  1.000e-06 
  6.0400e-08  1.000e-06 
  6.0500e-08  1.000e-06 
  6.0600e-08  1.000e-06 
  6.0700e-08  1.000e-06 
  6.0800e-08  1.000e-06 
  6.0900e-08  1.000e-06 
  6.1000e-08  1.000e-06 
  6.1100e-08  1.000e-06 
  6.1200e-08  1.000e-06 
  6.1300e-08  1.000e-06 
  6.1400e-08  1.000e-06 
  6.1500e-08  1.000e-06 
  6.1600e-08  1.000e-06 
  6.1700e-08  1.000e-06 
  6.1800e-08  1.000e-06 
  6.1900e-08  1.000e-06 
  6.2000e-08  1.000e-06 
  6.2100e-08  1.390e-06 
  6.2200e-08  1.272e-06 
  6.2300e-08  1.148e-06 
  6.2400e-08  1.082e-06 
  6.2500e-08  1.047e-06 
  6.2600e-08  1.020e-06 
  6.2700e-08  1.011e-06 
  6.2800e-08  1.007e-06 
  6.2900e-08  1.005e-06 
  6.3000e-08  1.004e-06 
  6.3100e-08  1.003e-06 
  6.3200e-08  1.003e-06 
  6.3300e-08  1.002e-06 
  6.3400e-08  1.002e-06 
  6.3500e-08  1.002e-06 
  6.3600e-08  1.002e-06 
  6.3700e-08  1.001e-06 
  6.3800e-08  1.001e-06 
  6.3900e-08  1.001e-06 
  6.4000e-08  1.001e-06 
  6.4100e-08  1.000e-06 
  6.4200e-08  1.000e-06 
  6.4300e-08  1.000e-06 
  6.4400e-08  1.000e-06 
  6.4500e-08  1.000e-06 
  6.4600e-08  1.000e-06 
  6.4700e-08  1.000e-06 
  6.4800e-08  1.000e-06 
  6.4900e-08  1.000e-06 
  6.5000e-08  1.000e-06 
  6.5100e-08  1.000e-06 
  6.5200e-08  1.000e-06 
  6.5300e-08  1.000e-06 
  6.5400e-08  1.000e-06 
  6.5500e-08  1.000e-06 
  6.5600e-08  1.000e-06 
  6.5700e-08  1.000e-06 
  6.5800e-08  1.000e-06 
  6.5900e-08  1.000e-06 
  6.6000e-08  1.000e-06 
  6.6100e-08  1.389e-06 
  6.6200e-08  1.273e-06 
  6.6300e-08  1.152e-06 
  6.6400e-08  1.083e-06 
  6.6500e-08  1.048e-06 
  6.6600e-08  1.026e-06 
  6.6700e-08  1.009e-06 
  6.6800e-08  1.007e-06 
  6.6900e-08  1.005e-06 
  6.7000e-08  1.003e-06 
  6.7100e-08  1.003e-06 
  6.7200e-08  1.002e-06 
  6.7300e-08  1.002e-06 
  6.7400e-08  1.002e-06 
  6.7500e-08  1.002e-06 
  6.7600e-08  1.002e-06 
  6.7700e-08  1.001e-06 
  6.7800e-08  1.001e-06 
  6.7900e-08  1.001e-06 
  6.8000e-08  1.001e-06 
  6.8100e-08  1.000e-06 
  6.8200e-08  1.000e-06 
  6.8300e-08  1.000e-06 
  6.8400e-08  1.000e-06 
  6.8500e-08  1.000e-06 
  6.8600e-08  1.000e-06 
  6.8700e-08  1.000e-06 
  6.8800e-08  1.000e-06 
  6.8900e-08  1.000e-06 
  6.9000e-08  1.000e-06 
  6.9100e-08  1.000e-06 
  6.9200e-08  1.000e-06 
  6.9300e-08  1.000e-06 
  6.9400e-08  1.000e-06 
  6.9500e-08  1.000e-06 
  6.9600e-08  1.000e-06 
  6.9700e-08  1.000e-06 
  6.9800e-08  1.000e-06 
  6.9900e-08  1.000e-06 
  7.0000e-08  1.000e-06 
  7.0100e-08  1.390e-06 
  7.0200e-08  1.272e-06 
  7.0300e-08  1.148e-06 
  7.0400e-08  1.082e-06 
  7.0500e-08  1.047e-06 
  7.0600e-08  1.020e-06 
  7.0700e-08  1.011e-06 
  7.0800e-08  1.007e-06 
  7.0900e-08  1.005e-06 
  7.1000e-08  1.004e-06 
  7.1100e-08  1.003e-06 
  7.1200e-08  1.003e-06 
  7.1300e-08  1.002e-06 
  7.1400e-08  1.002e-06 
  7.1500e-08  1.002e-06 
  7.1600e-08  1.002e-06 
  7.1700e-08  1.001e-06 
  7.1800e-08  1.001e-06 
  7.1900e-08  1.001e-06 
  7.2000e-08  1.001e-06 
  7.2100e-08  1.000e-06 
  7.2200e-08  1.000e-06 
  7.2300e-08  1.000e-06 
  7.2400e-08  1.000e-06 
  7.2500e-08  1.000e-06 
  7.2600e-08  1.000e-06 
  7.2700e-08  1.000e-06 
  7.2800e-08  1.000e-06 
  7.2900e-08  1.000e-06 
  7.3000e-08  1.000e-06 
  7.3100e-08  1.000e-06 
  7.3200e-08  1.000e-06 
  7.3300e-08  1.000e-06 
  7.3400e-08  1.000e-06 
  7.3500e-08  1.000e-06 
  7.3600e-08  1.000e-06 
  7.3700e-08  1.000e-06 
  7.3800e-08  1.000e-06 
  7.3900e-08  1.000e-06 
  7.4000e-08  1.000e-06 
  7.4100e-08  1.389e-06 
  7.4200e-08  1.273e-06 
  7.4300e-08  1.152e-06 
  7.4400e-08  1.083e-06 
  7.4500e-08  1.048e-06 
  7.4600e-08  1.026e-06 
  7.4700e-08  1.009e-06 
  7.4800e-08  1.007e-06 
  7.4900e-08  1.005e-06 
  7.5000e-08  1.003e-06 
  7.5100e-08  1.003e-06 
  7.5200e-08  1.002e-06 
  7.5300e-08  1.002e-06 
  7.5400e-08  1.002e-06 
  7.5500e-08  1.002e-06 
  7.5600e-08  1.002e-06 
  7.5700e-08  1.001e-06 
  7.5800e-08  1.001e-06 
  7.5900e-08  1.001e-06 
  7.6000e-08  1.001e-06 
  7.6100e-08  1.000e-06 
  7.6200e-08  1.000e-06 
  7.6300e-08  1.000e-06 
  7.6400e-08  1.000e-06 
  7.6500e-08  1.000e-06 
  7.6600e-08  1.000e-06 
  7.6700e-08  1.000e-06 
  7.6800e-08  1.000e-06 
  7.6900e-08  1.000e-06 
  7.7000e-08  1.000e-06 
  7.7100e-08  1.000e-06 
  7.7200e-08  1.000e-06 
  7.7300e-08  1.000e-06 
  7.7400e-08  1.000e-06 
  7.7500e-08  1.000e-06 
  7.7600e-08  1.000e-06 
  7.7700e-08  1.000e-06 
  7.7800e-08  1.000e-06 
  7.7900e-08  1.000e-06 
  7.8000e-08  1.000e-06 
  7.8100e-08  1.390e-06 
  7.8200e-08  1.272e-06 
  7.8300e-08  1.148e-06 
  7.8400e-08  1.082e-06 
  7.8500e-08  1.047e-06 
  7.8600e-08  1.020e-06 
  7.8700e-08  1.011e-06 
  7.8800e-08  1.007e-06 
  7.8900e-08  1.005e-06 
  7.9000e-08  1.004e-06 
  7.9100e-08  1.003e-06 
  7.9200e-08  1.003e-06 
  7.9300e-08  1.002e-06 
  7.9400e-08  1.002e-06 
  7.9500e-08  1.002e-06 
  7.9600e-08  1.002e-06 
  7.9700e-08  1.001e-06 
  7.9800e-08  1.001e-06 
  7.9900e-08  1.001e-06 
  8.0000e-08  1.001e-06 
  8.0100e-08  1.000e-06 
  8.0200e-08  1.000e-06 
  8.0300e-08  1.000e-06 
  8.0400e-08  1.000e-06 
  8.0500e-08  1.000e-06 
  8.0600e-08  1.000e-06 
  8.0700e-08  1.000e-06 
  8.0800e-08  1.000e-06 
  8.0900e-08  1.000e-06 
  8.1000e-08  1.000e-06 
  8.1100e-08  1.000e-06 
  8.1200e-08  1.000e-06 
  8.1300e-08  1.000e-06 
  8.1400e-08  1.000e-06 
  8.1500e-08  1.000e-06 
  8.1600e-08  1.000e-06 
  8.1700e-08  1.000e-06 
  8.1800e-08  1.000e-06 
  8.1900e-08  1.000e-06 
  8.2000e-08  1.000e-06 
  8.2100e-08  1.389e-06 
  8.2200e-08  1.273e-06 
  8.2300e-08  1.152e-06 
  8.2400e-08  1.083e-06 
  8.2500e-08  1.048e-06 
  8.2600e-08  1.026e-06 
  8.2700e-08  1.009e-06 
  8.2800e-08  1.007e-06 
  8.2900e-08  1.005e-06 
  8.3000e-08  1.003e-06 
  8.3100e-08  1.003e-06 
  8.3200e-08  1.002e-06 
  8.3300e-08  1.002e-06 
  8.3400e-08  1.002e-06 
  8.3500e-08  1.002e-06 
  8.3600e-08  1.002e-06 
  8.3700e-08  1.001e-06 
  8.3800e-08  1.001e-06 
  8.3900e-08  1.001e-06 
  8.4000e-08  1.001e-06 
  8.4100e-08  1.000e-06 
  8.4200e-08  1.000e-06 
  8.4300e-08  1.000e-06 
  8.4400e-08  1.000e-06 
  8.4500e-08  1.000e-06 
  8.4600e-08  1.000e-06 
  8.4700e-08  1.000e-06 
  8.4800e-08  1.000e-06 
  8.4900e-08  1.000e-06 
  8.5000e-08  1.000e-06 
  8.5100e-08  1.000e-06 
  8.5200e-08  1.000e-06 
  8.5300e-08  1.000e-06 
  8.5400e-08  1.000e-06 
  8.5500e-08  1.000e-06 
  8.5600e-08  1.000e-06 
  8.5700e-08  1.000e-06 
  8.5800e-08  1.000e-06 
  8.5900e-08  1.000e-06 
  8.6000e-08  1.000e-06 
  8.6100e-08  1.390e-06 
  8.6200e-08  1.272e-06 
  8.6300e-08  1.148e-06 
  8.6400e-08  1.082e-06 
  8.6500e-08  1.047e-06 
  8.6600e-08  1.020e-06 
  8.6700e-08  1.011e-06 
  8.6800e-08  1.007e-06 
  8.6900e-08  1.005e-06 
  8.7000e-08  1.004e-06 
  8.7100e-08  1.003e-06 
  8.7200e-08  1.003e-06 
  8.7300e-08  1.002e-06 
  8.7400e-08  1.002e-06 
  8.7500e-08  1.002e-06 
  8.7600e-08  1.002e-06 
  8.7700e-08  1.001e-06 
  8.7800e-08  1.001e-06 
  8.7900e-08  1.001e-06 
  8.8000e-08  1.001e-06 
  8.8100e-08  1.000e-06 
  8.8200e-08  1.000e-06 
  8.8300e-08  1.000e-06 
  8.8400e-08  1.000e-06 
  8.8500e-08  1.000e-06 
  8.8600e-08  1.000e-06 
  8.8700e-08  1.000e-06 
  8.8800e-08  1.000e-06 
  8.8900e-08  1.000e-06 
  8.9000e-08  1.000e-06 
  8.9100e-08  1.000e-06 
  8.9200e-08  1.000e-06 
  8.9300e-08  1.000e-06 
  8.9400e-08  1.000e-06 
  8.9500e-08  1.000e-06 
  8.9600e-08  1.000e-06 
  8.9700e-08  1.000e-06 
  8.9800e-08  1.000e-06 
  8.9900e-08  1.000e-06 
  9.0000e-08  1.000e-06 
  9.0100e-08  1.389e-06 
  9.0200e-08  1.273e-06 
  9.0300e-08  1.152e-06 
  9.0400e-08  1.083e-06 
  9.0500e-08  1.048e-06 
  9.0600e-08  1.026e-06 
  9.0700e-08  1.009e-06 
  9.0800e-08  1.007e-06 
  9.0900e-08  1.005e-06 
  9.1000e-08  1.003e-06 
  9.1100e-08  1.003e-06 
  9.1200e-08  1.002e-06 
  9.1300e-08  1.002e-06 
  9.1400e-08  1.002e-06 
  9.1500e-08  1.002e-06 
  9.1600e-08  1.002e-06 
  9.1700e-08  1.001e-06 
  9.1800e-08  1.001e-06 
  9.1900e-08  1.001e-06 
  9.2000e-08  1.001e-06 
  9.2100e-08  1.000e-06 
  9.2200e-08  1.000e-06 
  9.2300e-08  1.000e-06 
  9.2400e-08  1.000e-06 
  9.2500e-08  1.000e-06 
  9.2600e-08  1.000e-06 
  9.2700e-08  1.000e-06 
  9.2800e-08  1.000e-06 
  9.2900e-08  1.000e-06 
  9.3000e-08  1.000e-06 
  9.3100e-08  1.000e-06 
  9.3200e-08  1.000e-06 
  9.3300e-08  1.000e-06 
  9.3400e-08  1.000e-06 
  9.3500e-08  1.000e-06 
  9.3600e-08  1.000e-06 
  9.3700e-08  1.000e-06 
  9.3800e-08  1.000e-06 
  9.3900e-08  1.000e-06 
  9.4000e-08  1.000e-06 
  9.4100e-08  1.390e-06 
  9.4200e-08  1.272e-06 
  9.4300e-08  1.148e-06 
  9.4400e-08  1.082e-06 
  9.4500e-08  1.047e-06 
  9.4600e-08  1.020e-06 
  9.4700e-08  1.011e-06 
  9.4800e-08  1.007e-06 
  9.4900e-08  1.005e-06 
  9.5000e-08  1.004e-06 
  9.5100e-08  1.003e-06 
  9.5200e-08  1.003e-06 
  9.5300e-08  1.002e-06 
  9.5400e-08  1.002e-06 
  9.5500e-08  1.002e-06 
  9.5600e-08  1.002e-06 
  9.5700e-08  1.001e-06 
  9.5800e-08  1.001e-06 
  9.5900e-08  1.001e-06 
  9.6000e-08  1.001e-06 
  9.6100e-08  1.000e-06 
  9.6200e-08  1.000e-06 
  9.6300e-08  1.000e-06 
  9.6400e-08  1.000e-06 
  9.6500e-08  1.000e-06 
  9.6600e-08  1.000e-06 
  9.6700e-08  1.000e-06 
  9.6800e-08  1.000e-06 
  9.6900e-08  1.000e-06 
  9.7000e-08  1.000e-06 
  9.7100e-08  1.000e-06 
  9.7200e-08  1.000e-06 
  9.7300e-08  1.000e-06 
  9.7400e-08  1.000e-06 
  9.7500e-08  1.000e-06 
  9.7600e-08  1.000e-06 
  9.7700e-08  1.000e-06 
  9.7800e-08  1.000e-06 
  9.7900e-08  1.000e-06 
  9.8000e-08  1.000e-06 
  9.8100e-08  1.389e-06 
  9.8200e-08  1.273e-06 
  9.8300e-08  1.152e-06 
  9.8400e-08  1.083e-06 
  9.8500e-08  1.048e-06 
  9.8600e-08  1.026e-06 
  9.8700e-08  1.009e-06 
  9.8800e-08  1.007e-06 
  9.8900e-08  1.005e-06 
  9.9000e-08  1.003e-06 
  9.9100e-08  1.003e-06 
  9.9200e-08  1.002e-06 
  9.9300e-08  1.002e-06 
  9.9400e-08  1.002e-06 
  9.9500e-08  1.002e-06 
  9.9600e-08  1.002e-06 
  9.9700e-08  1.001e-06 
  9.9800e-08  1.001e-06 
  9.9900e-08  1.001e-06 
  1.0000e-07  1.001e-06 
y

          ***** job concluded
 ******  
 ****and gate design****

 ****** job statistics summary tnom=  25.000 temp=  25.000 ******

  ******  HSPICE Threads Information  ******

  Command Line Threads Count :     1
  Available CPU Count        :     4
  Actual Threads Count       :     1


  ******  Circuit Statistics  ******
  # nodes       =      33 # elements   =      12
  # resistors   =       1 # capacitors =       0 # inductors   =       0
  # mutual_inds =       0 # vccs       =       0 # vcvs        =       0
  # cccs        =       0 # ccvs       =       0 # volt_srcs   =       5
  # curr_srcs   =       0 # diodes     =       0 # bjts        =       0
  # jfets       =       0 # mosfets    =       6 # U elements  =       0
  # T elements  =       0 # W elements =       0 # B elements  =       0
  # S elements  =       0 # P elements =       0 # va device   =       0
  # vector_srcs =       0 # N elements =       0


  ******  Runtime Statistics (seconds)  ******

  analysis           time    # points   tot. iter  conv.iter
  op point           0.01           1          47
  transient          0.12         991        3744        1327 rev=        59
  readin             0.02
  errchk             0.01
  setup              0.00
  output             0.00


           peak memory used         62.16 megabytes
           total cpu time            0.17 seconds
           total elapsed time        0.21 seconds
           job started at     20:44:11 01/24/2022
           job ended   at     20:44:11 01/24/2022
           job total runtime         0.21 seconds


  lic: Release hspice token(s) 
 lic: total license checkout elapse time:        0.03(s)
